testcases/gridlabd/ACTIVSG_2000_June16_T/Texas2000_June2016.glm
module powerflow {
	solver_method NR;
	line_capacitance true;
	}
module assert;

object node {
	name bus1;
	phases ABC;
	nominal_voltage 7.967 kV;
	bustype SWING;
	voltage_A 8.2861+0.0000d kV;
	voltage_B 8.2861-120.0000d kV;
	voltage_C 8.2861+120.0000d kV;
}
object load {
	name bus2;
	phases ABC;
	nominal_voltage 66.395 kV;
	bustype PQ;
	voltage_A 65.1363-16.8377d kV;
	voltage_B 65.1363-136.8377d kV;
	voltage_C 65.1363+103.1623d kV;
	constant_power_A 83.2833+23.7367j MVA;
	constant_power_B 83.2833+23.7367j MVA;
	constant_power_C 83.2833+23.7367j MVA;
}
object load {
	name bus3;
	phases ABC;
	nominal_voltage 66.395 kV;
	bustype PQ;
	voltage_A 66.0078-14.8408d kV;
	voltage_B 66.0078-134.8408d kV;
	voltage_C 66.0078+105.1592d kV;
	constant_power_A 51.3067+14.6233j MVA;
	constant_power_B 51.3067+14.6233j MVA;
	constant_power_C 51.3067+14.6233j MVA;
}
object load {
	name bus4;
	phases ABC;
	nominal_voltage 66.395 kV;
	bustype PQ;
	voltage_A 65.4805-16.2613d kV;
	voltage_B 65.4805-136.2613d kV;
	voltage_C 65.4805+103.7387d kV;
	constant_power_A 61.0700+17.4067j MVA;
	constant_power_B 61.0700+17.4067j MVA;
	constant_power_C 61.0700+17.4067j MVA;
}
object load {
	name bus5;
	phases ABC;
	nominal_voltage 66.395 kV;
	bustype PQ;
	voltage_A 65.2690-16.7644d kV;
	voltage_B 65.2690-136.7644d kV;
	voltage_C 65.2690+103.2356d kV;
	constant_power_A 41.9467+11.9567j MVA;
	constant_power_B 41.9467+11.9567j MVA;
	constant_power_C 41.9467+11.9567j MVA;
}
object load {
	name bus6;
	phases ABC;
	nominal_voltage 66.395 kV;
	bustype PQ;
	voltage_A 65.5028-14.2172d kV;
	voltage_B 65.5028-134.2172d kV;
	voltage_C 65.5028+105.7828d kV;
	constant_power_A 7.1400+2.0333j MVA;
	constant_power_B 7.1400+2.0333j MVA;
	constant_power_C 7.1400+2.0333j MVA;
}
object load {
	name bus7;
	phases ABC;
	nominal_voltage 66.395 kV;
	bustype PQ;
	voltage_A 65.1679-16.8064d kV;
	voltage_B 65.1679-136.8064d kV;
	voltage_C 65.1679+103.1936d kV;
	constant_power_A 56.4400+16.0867j MVA;
	constant_power_B 56.4400+16.0867j MVA;
	constant_power_C 56.4400+16.0867j MVA;
}
object load {
	name bus8;
	phases ABC;
	nominal_voltage 66.395 kV;
	bustype PQ;
	voltage_A 65.6292-15.5092d kV;
	voltage_B 65.6292-135.5092d kV;
	voltage_C 65.6292+104.4908d kV;
	constant_power_A 24.6600+7.0267j MVA;
	constant_power_B 24.6600+7.0267j MVA;
	constant_power_C 24.6600+7.0267j MVA;
}
object load {
	name bus9;
	phases ABC;
	nominal_voltage 66.395 kV;
	bustype PQ;
	voltage_A 65.5599-16.1325d kV;
	voltage_B 65.5599-136.1325d kV;
	voltage_C 65.5599+103.8675d kV;
	constant_power_A 59.9333+17.0800j MVA;
	constant_power_B 59.9333+17.0800j MVA;
	constant_power_C 59.9333+17.0800j MVA;
}
object load {
	name bus10;
	phases ABC;
	nominal_voltage 66.395 kV;
	bustype PQ;
	voltage_A 66.8992-8.9785d kV;
	voltage_B 66.8992-128.9785d kV;
	voltage_C 66.8992+111.0215d kV;
	constant_power_A 13.5500+3.8633j MVA;
	constant_power_B 13.5500+3.8633j MVA;
	constant_power_C 13.5500+3.8633j MVA;
}
object load {
	name bus11;
	phases ABC;
	nominal_voltage 66.395 kV;
	bustype PQ;
	voltage_A 66.3344-10.5467d kV;
	voltage_B 66.3344-130.5467d kV;
	voltage_C 66.3344+109.4533d kV;
	constant_power_A 4.9767+1.4200j MVA;
	constant_power_B 4.9767+1.4200j MVA;
	constant_power_C 4.9767+1.4200j MVA;
}
object load {
	name bus12;
	phases ABC;
	nominal_voltage 66.395 kV;
	bustype PQ;
	voltage_A 64.9981-17.7265d kV;
	voltage_B 64.9981-137.7265d kV;
	voltage_C 64.9981+102.2735d kV;
	constant_power_A 18.3200+5.2200j MVA;
	constant_power_B 18.3200+5.2200j MVA;
	constant_power_C 18.3200+5.2200j MVA;
}
object load {
	name bus13;
	phases ABC;
	nominal_voltage 66.395 kV;
	bustype PQ;
	voltage_A 65.6699-15.6880d kV;
	voltage_B 65.6699-135.6880d kV;
	voltage_C 65.6699+104.3120d kV;
	constant_power_A 78.3133+22.3200j MVA;
	constant_power_B 78.3133+22.3200j MVA;
	constant_power_C 78.3133+22.3200j MVA;
}
object load {
	name bus14;
	phases ABC;
	nominal_voltage 66.395 kV;
	bustype PQ;
	voltage_A 65.5298-16.0295d kV;
	voltage_B 65.5298-136.0295d kV;
	voltage_C 65.5298+103.9705d kV;
	constant_power_A 67.6267+19.2733j MVA;
	constant_power_B 67.6267+19.2733j MVA;
	constant_power_C 67.6267+19.2733j MVA;
}
object load {
	name bus15;
	phases ABC;
	nominal_voltage 66.395 kV;
	bustype PQ;
	voltage_A 64.9261-17.3419d kV;
	voltage_B 64.9261-137.3419d kV;
	voltage_C 64.9261+102.6581d kV;
	constant_power_A 34.3100+9.7800j MVA;
	constant_power_B 34.3100+9.7800j MVA;
	constant_power_C 34.3100+9.7800j MVA;
}
object load {
	name bus16;
	phases ABC;
	nominal_voltage 66.395 kV;
	bustype PQ;
	voltage_A 64.9881-16.1244d kV;
	voltage_B 64.9881-136.1244d kV;
	voltage_C 64.9881+103.8756d kV;
	constant_power_A 22.7400+6.4800j MVA;
	constant_power_B 22.7400+6.4800j MVA;
	constant_power_C 22.7400+6.4800j MVA;
}
object load {
	name bus17;
	phases ABC;
	nominal_voltage 66.395 kV;
	bustype PQ;
	voltage_A 65.0569-16.7882d kV;
	voltage_B 65.0569-136.7882d kV;
	voltage_C 65.0569+103.2118d kV;
	constant_power_A 59.0933+16.8400j MVA;
	constant_power_B 59.0933+16.8400j MVA;
	constant_power_C 59.0933+16.8400j MVA;
}
object load {
	name bus18;
	phases ABC;
	nominal_voltage 66.395 kV;
	bustype PQ;
	voltage_A 65.2153-15.4629d kV;
	voltage_B 65.2153-135.4629d kV;
	voltage_C 65.2153+104.5371d kV;
	constant_power_A 38.6400+11.0133j MVA;
	constant_power_B 38.6400+11.0133j MVA;
	constant_power_C 38.6400+11.0133j MVA;
}
object load {
	name bus19;
	phases ABC;
	nominal_voltage 66.395 kV;
	bustype PQ;
	voltage_A 65.6076-15.0834d kV;
	voltage_B 65.6076-135.0834d kV;
	voltage_C 65.6076+104.9166d kV;
	constant_power_A 22.5900+6.4400j MVA;
	constant_power_B 22.5900+6.4400j MVA;
	constant_power_C 22.5900+6.4400j MVA;
}
object load {
	name bus20;
	phases ABC;
	nominal_voltage 66.395 kV;
	bustype PQ;
	voltage_A 65.4967-15.4301d kV;
	voltage_B 65.4967-135.4301d kV;
	voltage_C 65.4967+104.5699d kV;
	constant_power_A 8.9633+2.5533j MVA;
	constant_power_B 8.9633+2.5533j MVA;
	constant_power_C 8.9633+2.5533j MVA;
}
object load {
	name bus21;
	phases ABC;
	nominal_voltage 66.395 kV;
	bustype PQ;
	voltage_A 65.1740-16.6212d kV;
	voltage_B 65.1740-136.6212d kV;
	voltage_C 65.1740+103.3788d kV;
	constant_power_A 48.2700+13.7567j MVA;
	constant_power_B 48.2700+13.7567j MVA;
	constant_power_C 48.2700+13.7567j MVA;
}
object load {
	name bus22;
	phases ABC;
	nominal_voltage 66.395 kV;
	bustype PQ;
	voltage_A 65.0108-16.9200d kV;
	voltage_B 65.0108-136.9200d kV;
	voltage_C 65.0108+103.0800d kV;
	constant_power_A 55.7267+15.8833j MVA;
	constant_power_B 55.7267+15.8833j MVA;
	constant_power_C 55.7267+15.8833j MVA;
}
object load {
	name bus23;
	phases ABC;
	nominal_voltage 66.395 kV;
	bustype PQ;
	voltage_A 65.1529-16.6488d kV;
	voltage_B 65.1529-136.6488d kV;
	voltage_C 65.1529+103.3512d kV;
	constant_power_A 47.2067+13.4533j MVA;
	constant_power_B 47.2067+13.4533j MVA;
	constant_power_C 47.2067+13.4533j MVA;
}
object load {
	name bus24;
	phases ABC;
	nominal_voltage 66.395 kV;
	bustype PQ;
	voltage_A 65.4763-16.1616d kV;
	voltage_B 65.4763-136.1616d kV;
	voltage_C 65.4763+103.8384d kV;
	constant_power_A 50.3733+14.3567j MVA;
	constant_power_B 50.3733+14.3567j MVA;
	constant_power_C 50.3733+14.3567j MVA;
}
object load {
	name bus25;
	phases ABC;
	nominal_voltage 66.395 kV;
	bustype PQ;
	voltage_A 65.6611-15.8460d kV;
	voltage_B 65.6611-135.8461d kV;
	voltage_C 65.6611+104.1540d kV;
	constant_power_A 41.1000+11.7133j MVA;
	constant_power_B 41.1000+11.7133j MVA;
	constant_power_C 41.1000+11.7133j MVA;
}
object load {
	name bus26;
	phases ABC;
	nominal_voltage 66.395 kV;
	bustype PQ;
	voltage_A 65.2216-15.5511d kV;
	voltage_B 65.2216-135.5511d kV;
	voltage_C 65.2216+104.4489d kV;
	constant_power_A 33.3500+9.5033j MVA;
	constant_power_B 33.3500+9.5033j MVA;
	constant_power_C 33.3500+9.5033j MVA;
}
object load {
	name bus27;
	phases ABC;
	nominal_voltage 66.395 kV;
	bustype PQ;
	voltage_A 65.7499-14.7117d kV;
	voltage_B 65.7499-134.7117d kV;
	voltage_C 65.7499+105.2883d kV;
	constant_power_A 31.9233+9.0967j MVA;
	constant_power_B 31.9233+9.0967j MVA;
	constant_power_C 31.9233+9.0967j MVA;
}
object load {
	name bus28;
	phases ABC;
	nominal_voltage 66.395 kV;
	bustype PQ;
	voltage_A 65.3405-15.5070d kV;
	voltage_B 65.3405-135.5070d kV;
	voltage_C 65.3405+104.4930d kV;
	constant_power_A 72.3167+20.6100j MVA;
	constant_power_B 72.3167+20.6100j MVA;
	constant_power_C 72.3167+20.6100j MVA;
}
object load {
	name bus29;
	phases ABC;
	nominal_voltage 66.395 kV;
	bustype PQ;
	voltage_A 65.2056-15.0236d kV;
	voltage_B 65.2056-135.0236d kV;
	voltage_C 65.2056+104.9764d kV;
	constant_power_A 4.1067+1.1700j MVA;
	constant_power_B 4.1067+1.1700j MVA;
	constant_power_C 4.1067+1.1700j MVA;
}
object load {
	name bus30;
	phases ABC;
	nominal_voltage 66.395 kV;
	bustype PQ;
	voltage_A 65.1486-16.9683d kV;
	voltage_B 65.1486-136.9683d kV;
	voltage_C 65.1486+103.0317d kV;
	constant_power_A 60.0333+17.1100j MVA;
	constant_power_B 60.0333+17.1100j MVA;
	constant_power_C 60.0333+17.1100j MVA;
}
object load {
	name bus31;
	phases ABC;
	nominal_voltage 66.395 kV;
	bustype PQ;
	voltage_A 65.3500-14.6427d kV;
	voltage_B 65.3500-134.6427d kV;
	voltage_C 65.3500+105.3573d kV;
	constant_power_A 1.8467+0.5267j MVA;
	constant_power_B 1.8467+0.5267j MVA;
	constant_power_C 1.8467+0.5267j MVA;
}
object load {
	name bus32;
	phases ABC;
	nominal_voltage 66.395 kV;
	bustype PQ;
	voltage_A 65.5535-15.4641d kV;
	voltage_B 65.5535-135.4641d kV;
	voltage_C 65.5535+104.5359d kV;
	constant_power_A 116.9767+33.3400j MVA;
	constant_power_B 116.9767+33.3400j MVA;
	constant_power_C 116.9767+33.3400j MVA;
}
object load {
	name bus33;
	phases ABC;
	nominal_voltage 66.395 kV;
	bustype PQ;
	voltage_A 64.8346-18.0849d kV;
	voltage_B 64.8346-138.0849d kV;
	voltage_C 64.8346+101.9151d kV;
	constant_power_A 8.7333+2.4900j MVA;
	constant_power_B 8.7333+2.4900j MVA;
	constant_power_C 8.7333+2.4900j MVA;
}
object load {
	name bus34;
	phases ABC;
	nominal_voltage 66.395 kV;
	bustype PQ;
	voltage_A 64.4130-17.6244d kV;
	voltage_B 64.4130-137.6245d kV;
	voltage_C 64.4130+102.3755d kV;
	constant_power_A 28.3867+8.0900j MVA;
	constant_power_B 28.3867+8.0900j MVA;
	constant_power_C 28.3867+8.0900j MVA;
}
object load {
	name bus35;
	phases ABC;
	nominal_voltage 66.395 kV;
	bustype PQ;
	voltage_A 66.3392-13.5633d kV;
	voltage_B 66.3392-133.5633d kV;
	voltage_C 66.3392+106.4367d kV;
	constant_power_A 27.7167+7.9000j MVA;
	constant_power_B 27.7167+7.9000j MVA;
	constant_power_C 27.7167+7.9000j MVA;
}
object load {
	name bus36;
	phases ABC;
	nominal_voltage 66.395 kV;
	bustype PQ;
	voltage_A 65.0960-15.5816d kV;
	voltage_B 65.0960-135.5816d kV;
	voltage_C 65.0960+104.4184d kV;
	constant_power_A 60.7267+17.3067j MVA;
	constant_power_B 60.7267+17.3067j MVA;
	constant_power_C 60.7267+17.3067j MVA;
}
object load {
	name bus37;
	phases ABC;
	nominal_voltage 66.395 kV;
	bustype PQ;
	voltage_A 65.9036-14.1623d kV;
	voltage_B 65.9036-134.1623d kV;
	voltage_C 65.9036+105.8377d kV;
	constant_power_A 29.3267+8.3567j MVA;
	constant_power_B 29.3267+8.3567j MVA;
	constant_power_C 29.3267+8.3567j MVA;
}
object load {
	name bus38;
	phases ABC;
	nominal_voltage 66.395 kV;
	bustype PQ;
	voltage_A 65.6812-15.5789d kV;
	voltage_B 65.6812-135.5789d kV;
	voltage_C 65.6812+104.4211d kV;
	constant_power_A 36.2600+10.3333j MVA;
	constant_power_B 36.2600+10.3333j MVA;
	constant_power_C 36.2600+10.3333j MVA;
}
object load {
	name bus39;
	phases ABC;
	nominal_voltage 66.395 kV;
	bustype PQ;
	voltage_A 65.4585-16.2069d kV;
	voltage_B 65.4585-136.2069d kV;
	voltage_C 65.4585+103.7931d kV;
	constant_power_A 27.0267+7.7033j MVA;
	constant_power_B 27.0267+7.7033j MVA;
	constant_power_C 27.0267+7.7033j MVA;
}
object load {
	name bus40;
	phases ABC;
	nominal_voltage 66.395 kV;
	bustype PQ;
	voltage_A 66.6908-9.7525d kV;
	voltage_B 66.6908-129.7525d kV;
	voltage_C 66.6908+110.2475d kV;
	constant_power_A 4.5700+1.3033j MVA;
	constant_power_B 4.5700+1.3033j MVA;
	constant_power_C 4.5700+1.3033j MVA;
}
object load {
	name bus41;
	phases ABC;
	nominal_voltage 66.395 kV;
	bustype PQ;
	voltage_A 64.7642-18.3642d kV;
	voltage_B 64.7642-138.3642d kV;
	voltage_C 64.7642+101.6358d kV;
	constant_power_A 28.7067+8.1833j MVA;
	constant_power_B 28.7067+8.1833j MVA;
	constant_power_C 28.7067+8.1833j MVA;
}
object load {
	name bus42;
	phases ABC;
	nominal_voltage 66.395 kV;
	bustype PQ;
	voltage_A 65.8148-14.6799d kV;
	voltage_B 65.8148-134.6799d kV;
	voltage_C 65.8148+105.3201d kV;
	constant_power_A 8.6067+2.4533j MVA;
	constant_power_B 8.6067+2.4533j MVA;
	constant_power_C 8.6067+2.4533j MVA;
}
object load {
	name bus43;
	phases ABC;
	nominal_voltage 66.395 kV;
	bustype PQ;
	voltage_A 65.3262-16.5148d kV;
	voltage_B 65.3262-136.5148d kV;
	voltage_C 65.3262+103.4852d kV;
	constant_power_A 63.5133+18.1000j MVA;
	constant_power_B 63.5133+18.1000j MVA;
	constant_power_C 63.5133+18.1000j MVA;
}
object load {
	name bus44;
	phases ABC;
	nominal_voltage 66.395 kV;
	bustype PQ;
	voltage_A 65.5924-15.3083d kV;
	voltage_B 65.5924-135.3083d kV;
	voltage_C 65.5924+104.6917d kV;
	constant_power_A 22.8700+6.5167j MVA;
	constant_power_B 22.8700+6.5167j MVA;
	constant_power_C 22.8700+6.5167j MVA;
}
object load {
	name bus45;
	phases ABC;
	nominal_voltage 66.395 kV;
	bustype PQ;
	voltage_A 65.4644-16.5120d kV;
	voltage_B 65.4644-136.5120d kV;
	voltage_C 65.4644+103.4880d kV;
	constant_power_A 20.0800+5.7233j MVA;
	constant_power_B 20.0800+5.7233j MVA;
	constant_power_C 20.0800+5.7233j MVA;
}
object load {
	name bus46;
	phases ABC;
	nominal_voltage 66.395 kV;
	bustype PQ;
	voltage_A 66.1939-10.9031d kV;
	voltage_B 66.1939-130.9031d kV;
	voltage_C 66.1939+109.0969d kV;
	constant_power_A 14.6967+4.1900j MVA;
	constant_power_B 14.6967+4.1900j MVA;
	constant_power_C 14.6967+4.1900j MVA;
}
object load {
	name bus47;
	phases ABC;
	nominal_voltage 66.395 kV;
	bustype PQ;
	voltage_A 66.0086-11.7289d kV;
	voltage_B 66.0086-131.7289d kV;
	voltage_C 66.0086+108.2711d kV;
	constant_power_A 14.1500+4.0333j MVA;
	constant_power_B 14.1500+4.0333j MVA;
	constant_power_C 14.1500+4.0333j MVA;
}
object load {
	name bus48;
	phases ABC;
	nominal_voltage 66.395 kV;
	bustype PQ;
	voltage_A 66.0266-14.9473d kV;
	voltage_B 66.0266-134.9473d kV;
	voltage_C 66.0266+105.0527d kV;
	constant_power_A 16.7233+4.7667j MVA;
	constant_power_B 16.7233+4.7667j MVA;
	constant_power_C 16.7233+4.7667j MVA;
}
object load {
	name bus49;
	phases ABC;
	nominal_voltage 66.395 kV;
	bustype PQ;
	voltage_A 65.9887-14.3940d kV;
	voltage_B 65.9887-134.3940d kV;
	voltage_C 65.9887+105.6060d kV;
	constant_power_A 39.1633+11.1600j MVA;
	constant_power_B 39.1633+11.1600j MVA;
	constant_power_C 39.1633+11.1600j MVA;
}
object load {
	name bus50;
	phases ABC;
	nominal_voltage 66.395 kV;
	bustype PQ;
	voltage_A 66.2314-13.3175d kV;
	voltage_B 66.2314-133.3175d kV;
	voltage_C 66.2314+106.6825d kV;
	constant_power_A 0.5233+0.1500j MVA;
	constant_power_B 0.5233+0.1500j MVA;
	constant_power_C 0.5233+0.1500j MVA;
}
object load {
	name bus51;
	phases ABC;
	nominal_voltage 66.395 kV;
	bustype PQ;
	voltage_A 67.7230-10.3422d kV;
	voltage_B 67.7230-130.3422d kV;
	voltage_C 67.7230+109.6578d kV;
	constant_power_A 1.0733+0.3067j MVA;
	constant_power_B 1.0733+0.3067j MVA;
	constant_power_C 1.0733+0.3067j MVA;
}
object load {
	name bus52;
	phases ABC;
	nominal_voltage 66.395 kV;
	bustype PQ;
	voltage_A 66.5721-15.5338d kV;
	voltage_B 66.5721-135.5338d kV;
	voltage_C 66.5721+104.4662d kV;
	constant_power_A 6.6933+1.9067j MVA;
	constant_power_B 6.6933+1.9067j MVA;
	constant_power_C 6.6933+1.9067j MVA;
}
object load {
	name bus53;
	phases ABC;
	nominal_voltage 66.395 kV;
	bustype PQ;
	voltage_A 65.0762-16.0308d kV;
	voltage_B 65.0762-136.0308d kV;
	voltage_C 65.0762+103.9692d kV;
	constant_power_A 36.8700+10.5067j MVA;
	constant_power_B 36.8700+10.5067j MVA;
	constant_power_C 36.8700+10.5067j MVA;
}
object load {
	name bus54;
	phases ABC;
	nominal_voltage 66.395 kV;
	bustype PQ;
	voltage_A 66.9203-11.9934d kV;
	voltage_B 66.9203-131.9935d kV;
	voltage_C 66.9203+108.0065d kV;
	constant_power_A 0.2433+0.0700j MVA;
	constant_power_B 0.2433+0.0700j MVA;
	constant_power_C 0.2433+0.0700j MVA;
}
object load {
	name bus55;
	phases ABC;
	nominal_voltage 66.395 kV;
	bustype PQ;
	voltage_A 67.0924-11.1541d kV;
	voltage_B 67.0924-131.1541d kV;
	voltage_C 67.0924+108.8459d kV;
	constant_power_A 2.9733+0.8467j MVA;
	constant_power_B 2.9733+0.8467j MVA;
	constant_power_C 2.9733+0.8467j MVA;
}
object load {
	name bus56;
	phases ABC;
	nominal_voltage 66.395 kV;
	bustype PQ;
	voltage_A 67.7375-9.9111d kV;
	voltage_B 67.7375-129.9111d kV;
	voltage_C 67.7375+110.0889d kV;
	constant_power_A 22.8600+6.5133j MVA;
	constant_power_B 22.8600+6.5133j MVA;
	constant_power_C 22.8600+6.5133j MVA;
}
object load {
	name bus57;
	phases ABC;
	nominal_voltage 66.395 kV;
	bustype PQ;
	voltage_A 65.9968-16.4022d kV;
	voltage_B 65.9968-136.4022d kV;
	voltage_C 65.9968+103.5978d kV;
	constant_power_A 3.7867+1.0800j MVA;
	constant_power_B 3.7867+1.0800j MVA;
	constant_power_C 3.7867+1.0800j MVA;
}
object load {
	name bus58;
	phases ABC;
	nominal_voltage 66.395 kV;
	bustype PQ;
	voltage_A 66.9749-17.0066d kV;
	voltage_B 66.9749-137.0066d kV;
	voltage_C 66.9749+102.9934d kV;
	constant_power_A 39.7167+11.3200j MVA;
	constant_power_B 39.7167+11.3200j MVA;
	constant_power_C 39.7167+11.3200j MVA;
	constant_impedance_A 0.0000-165.3125j Ohm;
	constant_impedance_B 0.0000-165.3125j Ohm;
	constant_impedance_C 0.0000-165.3125j Ohm;
}
object load {
	name bus59;
	phases ABC;
	nominal_voltage 66.395 kV;
	bustype PQ;
	voltage_A 65.0084-16.2141d kV;
	voltage_B 65.0084-136.2141d kV;
	voltage_C 65.0084+103.7859d kV;
	constant_power_A 55.1333+15.7133j MVA;
	constant_power_B 55.1333+15.7133j MVA;
	constant_power_C 55.1333+15.7133j MVA;
}
object load {
	name bus60;
	phases ABC;
	nominal_voltage 66.395 kV;
	bustype PQ;
	voltage_A 66.9269-15.0241d kV;
	voltage_B 66.9269-135.0241d kV;
	voltage_C 66.9269+104.9759d kV;
	constant_power_A 1.9400+0.5533j MVA;
	constant_power_B 1.9400+0.5533j MVA;
	constant_power_C 1.9400+0.5533j MVA;
}
object load {
	name bus61;
	phases ABC;
	nominal_voltage 66.395 kV;
	bustype PQ;
	voltage_A 66.1106-13.4830d kV;
	voltage_B 66.1106-133.4830d kV;
	voltage_C 66.1106+106.5170d kV;
	constant_power_A 21.6167+6.1600j MVA;
	constant_power_B 21.6167+6.1600j MVA;
	constant_power_C 21.6167+6.1600j MVA;
}
object load {
	name bus62;
	phases ABC;
	nominal_voltage 66.395 kV;
	bustype PQ;
	voltage_A 66.3053-15.2777d kV;
	voltage_B 66.3053-135.2777d kV;
	voltage_C 66.3053+104.7223d kV;
	constant_power_A 2.3167+0.6600j MVA;
	constant_power_B 2.3167+0.6600j MVA;
	constant_power_C 2.3167+0.6600j MVA;
}
object load {
	name bus63;
	phases ABC;
	nominal_voltage 66.395 kV;
	bustype PQ;
	voltage_A 65.9231-15.0162d kV;
	voltage_B 65.9231-135.0163d kV;
	voltage_C 65.9231+104.9838d kV;
	constant_power_A 5.4367+1.5500j MVA;
	constant_power_B 5.4367+1.5500j MVA;
	constant_power_C 5.4367+1.5500j MVA;
}
object load {
	name bus64;
	phases ABC;
	nominal_voltage 66.395 kV;
	bustype PQ;
	voltage_A 66.5903-17.0978d kV;
	voltage_B 66.5903-137.0978d kV;
	voltage_C 66.5903+102.9022d kV;
	constant_power_A 27.1367+7.7333j MVA;
	constant_power_B 27.1367+7.7333j MVA;
	constant_power_C 27.1367+7.7333j MVA;
	constant_impedance_A 0.0000-188.9286j Ohm;
	constant_impedance_B 0.0000-188.9286j Ohm;
	constant_impedance_C 0.0000-188.9286j Ohm;
}
object load {
	name bus65;
	phases ABC;
	nominal_voltage 66.395 kV;
	bustype PQ;
	voltage_A 67.1144-14.5846d kV;
	voltage_B 67.1144-134.5846d kV;
	voltage_C 67.1144+105.4154d kV;
	constant_power_A 0.8300+0.2367j MVA;
	constant_power_B 0.8300+0.2367j MVA;
	constant_power_C 0.8300+0.2367j MVA;
}
object load {
	name bus66;
	phases ABC;
	nominal_voltage 66.395 kV;
	bustype PQ;
	voltage_A 65.7780-15.8412d kV;
	voltage_B 65.7780-135.8412d kV;
	voltage_C 65.7780+104.1588d kV;
	constant_power_A 0.2400+0.0667j MVA;
	constant_power_B 0.2400+0.0667j MVA;
	constant_power_C 0.2400+0.0667j MVA;
}
object load {
	name bus67;
	phases ABC;
	nominal_voltage 66.395 kV;
	bustype PQ;
	voltage_A 65.2824-17.1820d kV;
	voltage_B 65.2824-137.1820d kV;
	voltage_C 65.2824+102.8180d kV;
	constant_power_A 16.4767+4.6967j MVA;
	constant_power_B 16.4767+4.6967j MVA;
	constant_power_C 16.4767+4.6967j MVA;
	constant_impedance_A 0.0000-264.5000j Ohm;
	constant_impedance_B 0.0000-264.5000j Ohm;
	constant_impedance_C 0.0000-264.5000j Ohm;
}
object load {
	name bus68;
	phases ABC;
	nominal_voltage 66.395 kV;
	bustype PQ;
	voltage_A 65.7294-15.4773d kV;
	voltage_B 65.7294-135.4773d kV;
	voltage_C 65.7294+104.5227d kV;
	constant_power_A 4.8033+1.3700j MVA;
	constant_power_B 4.8033+1.3700j MVA;
	constant_power_C 4.8033+1.3700j MVA;
}
object load {
	name bus69;
	phases ABC;
	nominal_voltage 66.395 kV;
	bustype PQ;
	voltage_A 67.2122-14.0434d kV;
	voltage_B 67.2122-134.0434d kV;
	voltage_C 67.2122+105.9566d kV;
	constant_power_A 3.6233+1.0333j MVA;
	constant_power_B 3.6233+1.0333j MVA;
	constant_power_C 3.6233+1.0333j MVA;
}
object load {
	name bus70;
	phases ABC;
	nominal_voltage 66.395 kV;
	bustype PQ;
	voltage_A 65.4680-16.0591d kV;
	voltage_B 65.4680-136.0591d kV;
	voltage_C 65.4680+103.9409d kV;
	constant_power_A 7.5800+2.1600j MVA;
	constant_power_B 7.5800+2.1600j MVA;
	constant_power_C 7.5800+2.1600j MVA;
}
object load {
	name bus71;
	phases ABC;
	nominal_voltage 66.395 kV;
	bustype PQ;
	voltage_A 64.9217-16.7461d kV;
	voltage_B 64.9217-136.7461d kV;
	voltage_C 64.9217+103.2539d kV;
	constant_power_A 15.4233+4.3967j MVA;
	constant_power_B 15.4233+4.3967j MVA;
	constant_power_C 15.4233+4.3967j MVA;
}
object load {
	name bus72;
	phases ABC;
	nominal_voltage 66.395 kV;
	bustype PQ;
	voltage_A 66.1184-14.2718d kV;
	voltage_B 66.1184-134.2718d kV;
	voltage_C 66.1184+105.7282d kV;
	constant_power_A 11.8800+3.3867j MVA;
	constant_power_B 11.8800+3.3867j MVA;
	constant_power_C 11.8800+3.3867j MVA;
}
object load {
	name bus73;
	phases ABC;
	nominal_voltage 66.395 kV;
	bustype PQ;
	voltage_A 66.4247-13.9317d kV;
	voltage_B 66.4247-133.9317d kV;
	voltage_C 66.4247+106.0683d kV;
	constant_power_A 2.6733+0.7633j MVA;
	constant_power_B 2.6733+0.7633j MVA;
	constant_power_C 2.6733+0.7633j MVA;
}
object load {
	name bus74;
	phases ABC;
	nominal_voltage 66.395 kV;
	bustype PQ;
	voltage_A 65.2275-16.7235d kV;
	voltage_B 65.2275-136.7235d kV;
	voltage_C 65.2275+103.2765d kV;
	constant_power_A 14.6200+4.1667j MVA;
	constant_power_B 14.6200+4.1667j MVA;
	constant_power_C 14.6200+4.1667j MVA;
}
object load {
	name bus75;
	phases ABC;
	nominal_voltage 66.395 kV;
	bustype PQ;
	voltage_A 65.6590-16.1472d kV;
	voltage_B 65.6590-136.1472d kV;
	voltage_C 65.6590+103.8528d kV;
	constant_power_A 5.3633+1.5300j MVA;
	constant_power_B 5.3633+1.5300j MVA;
	constant_power_C 5.3633+1.5300j MVA;
}
object load {
	name bus76;
	phases ABC;
	nominal_voltage 66.395 kV;
	bustype PQ;
	voltage_A 68.2073-12.5790d kV;
	voltage_B 68.2073-132.5790d kV;
	voltage_C 68.2073+107.4210d kV;
	constant_power_A 3.0433+0.8667j MVA;
	constant_power_B 3.0433+0.8667j MVA;
	constant_power_C 3.0433+0.8667j MVA;
}
object load {
	name bus77;
	phases ABC;
	nominal_voltage 66.395 kV;
	bustype PQ;
	voltage_A 64.7468-17.2248d kV;
	voltage_B 64.7468-137.2248d kV;
	voltage_C 64.7468+102.7752d kV;
	constant_power_A 45.5567+12.9833j MVA;
	constant_power_B 45.5567+12.9833j MVA;
	constant_power_C 45.5567+12.9833j MVA;
}
object load {
	name bus78;
	phases ABC;
	nominal_voltage 66.395 kV;
	bustype PQ;
	voltage_A 64.7971-17.2452d kV;
	voltage_B 64.7971-137.2452d kV;
	voltage_C 64.7971+102.7548d kV;
	constant_power_A 47.7233+13.6000j MVA;
	constant_power_B 47.7233+13.6000j MVA;
	constant_power_C 47.7233+13.6000j MVA;
}
object load {
	name bus79;
	phases ABC;
	nominal_voltage 66.395 kV;
	bustype PQ;
	voltage_A 66.6854-13.5169d kV;
	voltage_B 66.6854-133.5170d kV;
	voltage_C 66.6854+106.4831d kV;
	constant_power_A 3.7433+1.0667j MVA;
	constant_power_B 3.7433+1.0667j MVA;
	constant_power_C 3.7433+1.0667j MVA;
}
object load {
	name bus80;
	phases ABC;
	nominal_voltage 66.395 kV;
	bustype PQ;
	voltage_A 66.7376-12.2594d kV;
	voltage_B 66.7376-132.2594d kV;
	voltage_C 66.7376+107.7406d kV;
	constant_power_A 0.4900+0.1400j MVA;
	constant_power_B 0.4900+0.1400j MVA;
	constant_power_C 0.4900+0.1400j MVA;
}
object load {
	name bus81;
	phases ABC;
	nominal_voltage 66.395 kV;
	bustype PQ;
	voltage_A 64.6851-16.1520d kV;
	voltage_B 64.6851-136.1520d kV;
	voltage_C 64.6851+103.8480d kV;
	constant_power_A 29.2867+8.3467j MVA;
	constant_power_B 29.2867+8.3467j MVA;
	constant_power_C 29.2867+8.3467j MVA;
}
object load {
	name bus82;
	phases ABC;
	nominal_voltage 66.395 kV;
	bustype PQ;
	voltage_A 66.5767-12.6120d kV;
	voltage_B 66.5767-132.6120d kV;
	voltage_C 66.5767+107.3880d kV;
	constant_power_A 2.0967+0.5967j MVA;
	constant_power_B 2.0967+0.5967j MVA;
	constant_power_C 2.0967+0.5967j MVA;
}
object load {
	name bus83;
	phases ABC;
	nominal_voltage 66.395 kV;
	bustype PQ;
	voltage_A 66.9758-14.3414d kV;
	voltage_B 66.9758-134.3415d kV;
	voltage_C 66.9758+105.6585d kV;
	constant_power_A 11.8467+3.3767j MVA;
	constant_power_B 11.8467+3.3767j MVA;
	constant_power_C 11.8467+3.3767j MVA;
}
object load {
	name bus84;
	phases ABC;
	nominal_voltage 66.395 kV;
	bustype PQ;
	voltage_A 66.6129-14.1922d kV;
	voltage_B 66.6129-134.1922d kV;
	voltage_C 66.6129+105.8078d kV;
	constant_power_A 3.6167+1.0300j MVA;
	constant_power_B 3.6167+1.0300j MVA;
	constant_power_C 3.6167+1.0300j MVA;
}
object load {
	name bus85;
	phases ABC;
	nominal_voltage 66.395 kV;
	bustype PQ;
	voltage_A 65.7545-15.7820d kV;
	voltage_B 65.7545-135.7820d kV;
	voltage_C 65.7545+104.2180d kV;
	constant_power_A 14.9033+4.2467j MVA;
	constant_power_B 14.9033+4.2467j MVA;
	constant_power_C 14.9033+4.2467j MVA;
}
object load {
	name bus86;
	phases ABC;
	nominal_voltage 66.395 kV;
	bustype PQ;
	voltage_A 66.3274-15.1919d kV;
	voltage_B 66.3274-135.1919d kV;
	voltage_C 66.3274+104.8081d kV;
	constant_power_A 19.2000+5.4700j MVA;
	constant_power_B 19.2000+5.4700j MVA;
	constant_power_C 19.2000+5.4700j MVA;
}
object load {
	name bus87;
	phases ABC;
	nominal_voltage 66.395 kV;
	bustype PQ;
	voltage_A 66.6974-12.6834d kV;
	voltage_B 66.6974-132.6834d kV;
	voltage_C 66.6974+107.3166d kV;
	constant_power_A 5.0100+1.4267j MVA;
	constant_power_B 5.0100+1.4267j MVA;
	constant_power_C 5.0100+1.4267j MVA;
}
object load {
	name bus88;
	phases ABC;
	nominal_voltage 66.395 kV;
	bustype PQ;
	voltage_A 68.0918-12.8392d kV;
	voltage_B 68.0918-132.8392d kV;
	voltage_C 68.0918+107.1608d kV;
	constant_power_A 1.1900+0.3400j MVA;
	constant_power_B 1.1900+0.3400j MVA;
	constant_power_C 1.1900+0.3400j MVA;
}
object load {
	name bus89;
	phases ABC;
	nominal_voltage 66.395 kV;
	bustype PQ;
	voltage_A 66.1494-15.7236d kV;
	voltage_B 66.1494-135.7236d kV;
	voltage_C 66.1494+104.2764d kV;
	constant_power_A 0.5467+0.1567j MVA;
	constant_power_B 0.5467+0.1567j MVA;
	constant_power_C 0.5467+0.1567j MVA;
}
object load {
	name bus90;
	phases ABC;
	nominal_voltage 66.395 kV;
	bustype PQ;
	voltage_A 66.3674-14.7164d kV;
	voltage_B 66.3674-134.7164d kV;
	voltage_C 66.3674+105.2836d kV;
	constant_power_A 30.8500+8.7933j MVA;
	constant_power_B 30.8500+8.7933j MVA;
	constant_power_C 30.8500+8.7933j MVA;
}
object load {
	name bus91;
	phases ABC;
	nominal_voltage 66.395 kV;
	bustype PQ;
	voltage_A 65.7763-14.5405d kV;
	voltage_B 65.7763-134.5405d kV;
	voltage_C 65.7763+105.4595d kV;
	constant_power_A 2.4933+0.7100j MVA;
	constant_power_B 2.4933+0.7100j MVA;
	constant_power_C 2.4933+0.7100j MVA;
}
object load {
	name bus92;
	phases ABC;
	nominal_voltage 66.395 kV;
	bustype PQ;
	voltage_A 66.3538-14.2987d kV;
	voltage_B 66.3538-134.2987d kV;
	voltage_C 66.3538+105.7013d kV;
	constant_power_A 6.8533+1.9533j MVA;
	constant_power_B 6.8533+1.9533j MVA;
	constant_power_C 6.8533+1.9533j MVA;
}
object load {
	name bus93;
	phases ABC;
	nominal_voltage 66.395 kV;
	bustype PQ;
	voltage_A 66.6414-15.7288d kV;
	voltage_B 66.6414-135.7289d kV;
	voltage_C 66.6414+104.2712d kV;
	constant_power_A 7.6267+2.1733j MVA;
	constant_power_B 7.6267+2.1733j MVA;
	constant_power_C 7.6267+2.1733j MVA;
}
object load {
	name bus94;
	phases ABC;
	nominal_voltage 66.395 kV;
	bustype PQ;
	voltage_A 66.0410-13.6076d kV;
	voltage_B 66.0410-133.6076d kV;
	voltage_C 66.0410+106.3924d kV;
	constant_power_A 3.5367+1.0067j MVA;
	constant_power_B 3.5367+1.0067j MVA;
	constant_power_C 3.5367+1.0067j MVA;
}
object load {
	name bus95;
	phases ABC;
	nominal_voltage 66.395 kV;
	bustype PQ;
	voltage_A 64.6154-17.0324d kV;
	voltage_B 64.6154-137.0324d kV;
	voltage_C 64.6154+102.9676d kV;
	constant_power_A 33.7067+9.6067j MVA;
	constant_power_B 33.7067+9.6067j MVA;
	constant_power_C 33.7067+9.6067j MVA;
}
object load {
	name bus96;
	phases ABC;
	nominal_voltage 66.395 kV;
	bustype PQ;
	voltage_A 66.5229-17.9694d kV;
	voltage_B 66.5229-137.9694d kV;
	voltage_C 66.5229+102.0306d kV;
	constant_power_A 21.0533+6.0000j MVA;
	constant_power_B 21.0533+6.0000j MVA;
	constant_power_C 21.0533+6.0000j MVA;
	constant_impedance_A 0.0000-220.4167j Ohm;
	constant_impedance_B 0.0000-220.4167j Ohm;
	constant_impedance_C 0.0000-220.4167j Ohm;
}
object load {
	name bus97;
	phases ABC;
	nominal_voltage 66.395 kV;
	bustype PQ;
	voltage_A 66.5158-17.4584d kV;
	voltage_B 66.5158-137.4584d kV;
	voltage_C 66.5158+102.5416d kV;
	constant_power_A 4.1600+1.1867j MVA;
	constant_power_B 4.1600+1.1867j MVA;
	constant_power_C 4.1600+1.1867j MVA;
}
object load {
	name bus98;
	phases ABC;
	nominal_voltage 66.395 kV;
	bustype PQ;
	voltage_A 65.9606-16.2886d kV;
	voltage_B 65.9606-136.2886d kV;
	voltage_C 65.9606+103.7114d kV;
	constant_power_A 18.2067+5.1900j MVA;
	constant_power_B 18.2067+5.1900j MVA;
	constant_power_C 18.2067+5.1900j MVA;
	constant_impedance_A 0.0000-264.5000j Ohm;
	constant_impedance_B 0.0000-264.5000j Ohm;
	constant_impedance_C 0.0000-264.5000j Ohm;
}
object load {
	name bus99;
	phases ABC;
	nominal_voltage 66.395 kV;
	bustype PQ;
	voltage_A 65.0462-16.5654d kV;
	voltage_B 65.0462-136.5654d kV;
	voltage_C 65.0462+103.4346d kV;
	constant_power_A 61.2700+17.4633j MVA;
	constant_power_B 61.2700+17.4633j MVA;
	constant_power_C 61.2700+17.4633j MVA;
}
object load {
	name bus100;
	phases ABC;
	nominal_voltage 66.395 kV;
	bustype PQ;
	voltage_A 65.4786-15.4900d kV;
	voltage_B 65.4786-135.4900d kV;
	voltage_C 65.4786+104.5100d kV;
	constant_power_A 37.2900+10.6267j MVA;
	constant_power_B 37.2900+10.6267j MVA;
	constant_power_C 37.2900+10.6267j MVA;
}
object load {
	name bus101;
	phases ABC;
	nominal_voltage 66.395 kV;
	bustype PQ;
	voltage_A 65.0519-16.5200d kV;
	voltage_B 65.0519-136.5200d kV;
	voltage_C 65.0519+103.4800d kV;
	constant_power_A 91.9433+26.2033j MVA;
	constant_power_B 91.9433+26.2033j MVA;
	constant_power_C 91.9433+26.2033j MVA;
}
object load {
	name bus102;
	phases ABC;
	nominal_voltage 66.395 kV;
	bustype PQ;
	voltage_A 65.1641-16.2891d kV;
	voltage_B 65.1641-136.2891d kV;
	voltage_C 65.1641+103.7109d kV;
	constant_power_A 25.0533+7.1400j MVA;
	constant_power_B 25.0533+7.1400j MVA;
	constant_power_C 25.0533+7.1400j MVA;
}
object load {
	name bus103;
	phases ABC;
	nominal_voltage 66.395 kV;
	bustype PQ;
	voltage_A 64.7943-17.0885d kV;
	voltage_B 64.7943-137.0885d kV;
	voltage_C 64.7943+102.9115d kV;
	constant_power_A 29.3167+8.3533j MVA;
	constant_power_B 29.3167+8.3533j MVA;
	constant_power_C 29.3167+8.3533j MVA;
}
object load {
	name bus104;
	phases ABC;
	nominal_voltage 66.395 kV;
	bustype PQ;
	voltage_A 65.0096-16.1920d kV;
	voltage_B 65.0096-136.1920d kV;
	voltage_C 65.0096+103.8080d kV;
	constant_power_A 59.4367+16.9400j MVA;
	constant_power_B 59.4367+16.9400j MVA;
	constant_power_C 59.4367+16.9400j MVA;
}
object load {
	name bus105;
	phases ABC;
	nominal_voltage 66.395 kV;
	bustype PQ;
	voltage_A 65.5342-15.3877d kV;
	voltage_B 65.5342-135.3877d kV;
	voltage_C 65.5342+104.6123d kV;
	constant_power_A 20.6000+5.8700j MVA;
	constant_power_B 20.6000+5.8700j MVA;
	constant_power_C 20.6000+5.8700j MVA;
}
object load {
	name bus106;
	phases ABC;
	nominal_voltage 66.395 kV;
	bustype PQ;
	voltage_A 64.9443-17.1398d kV;
	voltage_B 64.9443-137.1398d kV;
	voltage_C 64.9443+102.8602d kV;
	constant_power_A 40.1533+11.4433j MVA;
	constant_power_B 40.1533+11.4433j MVA;
	constant_power_C 40.1533+11.4433j MVA;
}
object load {
	name bus107;
	phases ABC;
	nominal_voltage 66.395 kV;
	bustype PQ;
	voltage_A 64.9403-16.7683d kV;
	voltage_B 64.9403-136.7683d kV;
	voltage_C 64.9403+103.2317d kV;
	constant_power_A 65.2700+18.6000j MVA;
	constant_power_B 65.2700+18.6000j MVA;
	constant_power_C 65.2700+18.6000j MVA;
}
object load {
	name bus108;
	phases ABC;
	nominal_voltage 66.395 kV;
	bustype PQ;
	voltage_A 64.8198-17.2392d kV;
	voltage_B 64.8198-137.2392d kV;
	voltage_C 64.8198+102.7608d kV;
	constant_power_A 71.6800+20.4300j MVA;
	constant_power_B 71.6800+20.4300j MVA;
	constant_power_C 71.6800+20.4300j MVA;
}
object load {
	name bus109;
	phases ABC;
	nominal_voltage 66.395 kV;
	bustype PQ;
	voltage_A 65.2771-16.5833d kV;
	voltage_B 65.2771-136.5833d kV;
	voltage_C 65.2771+103.4167d kV;
	constant_power_A 59.6933+17.0133j MVA;
	constant_power_B 59.6933+17.0133j MVA;
	constant_power_C 59.6933+17.0133j MVA;
}
object load {
	name bus110;
	phases ABC;
	nominal_voltage 66.395 kV;
	bustype PQ;
	voltage_A 65.2499-16.1818d kV;
	voltage_B 65.2499-136.1818d kV;
	voltage_C 65.2499+103.8182d kV;
	constant_power_A 39.0667+11.1333j MVA;
	constant_power_B 39.0667+11.1333j MVA;
	constant_power_C 39.0667+11.1333j MVA;
}
object load {
	name bus111;
	phases ABC;
	nominal_voltage 66.395 kV;
	bustype PQ;
	voltage_A 64.7842-17.1127d kV;
	voltage_B 64.7842-137.1127d kV;
	voltage_C 64.7842+102.8873d kV;
	constant_power_A 44.7133+12.7433j MVA;
	constant_power_B 44.7133+12.7433j MVA;
	constant_power_C 44.7133+12.7433j MVA;
}
object load {
	name bus112;
	phases ABC;
	nominal_voltage 66.395 kV;
	bustype PQ;
	voltage_A 64.9317-16.9411d kV;
	voltage_B 64.9317-136.9411d kV;
	voltage_C 64.9317+103.0589d kV;
	constant_power_A 99.8967+28.4700j MVA;
	constant_power_B 99.8967+28.4700j MVA;
	constant_power_C 99.8967+28.4700j MVA;
}
object load {
	name bus113;
	phases ABC;
	nominal_voltage 66.395 kV;
	bustype PQ;
	voltage_A 64.9961-16.7958d kV;
	voltage_B 64.9961-136.7958d kV;
	voltage_C 64.9961+103.2042d kV;
	constant_power_A 37.2033+10.6033j MVA;
	constant_power_B 37.2033+10.6033j MVA;
	constant_power_C 37.2033+10.6033j MVA;
}
object load {
	name bus114;
	phases ABC;
	nominal_voltage 66.395 kV;
	bustype PQ;
	voltage_A 65.2247-17.5601d kV;
	voltage_B 65.2247-137.5601d kV;
	voltage_C 65.2247+102.4399d kV;
	constant_power_A 21.9933+6.2667j MVA;
	constant_power_B 21.9933+6.2667j MVA;
	constant_power_C 21.9933+6.2667j MVA;
	constant_impedance_A 0.0000-220.4167j Ohm;
	constant_impedance_B 0.0000-220.4167j Ohm;
	constant_impedance_C 0.0000-220.4167j Ohm;
}
object load {
	name bus115;
	phases ABC;
	nominal_voltage 66.395 kV;
	bustype PQ;
	voltage_A 65.3470-16.5317d kV;
	voltage_B 65.3470-136.5317d kV;
	voltage_C 65.3470+103.4683d kV;
	constant_power_A 86.5467+24.6667j MVA;
	constant_power_B 86.5467+24.6667j MVA;
	constant_power_C 86.5467+24.6667j MVA;
}
object load {
	name bus116;
	phases ABC;
	nominal_voltage 66.395 kV;
	bustype PQ;
	voltage_A 65.8044-13.4494d kV;
	voltage_B 65.8044-133.4494d kV;
	voltage_C 65.8044+106.5506d kV;
	constant_power_A 15.0733+4.2967j MVA;
	constant_power_B 15.0733+4.2967j MVA;
	constant_power_C 15.0733+4.2967j MVA;
}
object load {
	name bus117;
	phases ABC;
	nominal_voltage 66.395 kV;
	bustype PQ;
	voltage_A 66.5586-14.0121d kV;
	voltage_B 66.5586-134.0121d kV;
	voltage_C 66.5586+105.9879d kV;
	constant_power_A 12.9367+3.6867j MVA;
	constant_power_B 12.9367+3.6867j MVA;
	constant_power_C 12.9367+3.6867j MVA;
	constant_impedance_A 0.0000-440.8333j Ohm;
	constant_impedance_B 0.0000-440.8333j Ohm;
	constant_impedance_C 0.0000-440.8333j Ohm;
}
object load {
	name bus118;
	phases ABC;
	nominal_voltage 66.395 kV;
	bustype PQ;
	voltage_A 65.8331-14.5865d kV;
	voltage_B 65.8331-134.5865d kV;
	voltage_C 65.8331+105.4135d kV;
	constant_power_A 11.4733+3.2700j MVA;
	constant_power_B 11.4733+3.2700j MVA;
	constant_power_C 11.4733+3.2700j MVA;
}
object load {
	name bus119;
	phases ABC;
	nominal_voltage 66.395 kV;
	bustype PQ;
	voltage_A 66.5112-12.0312d kV;
	voltage_B 66.5112-132.0312d kV;
	voltage_C 66.5112+107.9688d kV;
	constant_power_A 9.6133+2.7400j MVA;
	constant_power_B 9.6133+2.7400j MVA;
	constant_power_C 9.6133+2.7400j MVA;
}
object load {
	name bus120;
	phases ABC;
	nominal_voltage 66.395 kV;
	bustype PQ;
	voltage_A 66.2420-11.8794d kV;
	voltage_B 66.2420-131.8794d kV;
	voltage_C 66.2420+108.1206d kV;
	constant_power_A 0.6933+0.1967j MVA;
	constant_power_B 0.6933+0.1967j MVA;
	constant_power_C 0.6933+0.1967j MVA;
}
object load {
	name bus121;
	phases ABC;
	nominal_voltage 66.395 kV;
	bustype PQ;
	voltage_A 66.1916-12.4458d kV;
	voltage_B 66.1916-132.4458d kV;
	voltage_C 66.1916+107.5542d kV;
	constant_power_A 0.4833+0.1367j MVA;
	constant_power_B 0.4833+0.1367j MVA;
	constant_power_C 0.4833+0.1367j MVA;
}
object load {
	name bus122;
	phases ABC;
	nominal_voltage 66.395 kV;
	bustype PQ;
	voltage_A 65.8883-12.1887d kV;
	voltage_B 65.8883-132.1887d kV;
	voltage_C 65.8883+107.8113d kV;
	constant_power_A 0.1900+0.0533j MVA;
	constant_power_B 0.1900+0.0533j MVA;
	constant_power_C 0.1900+0.0533j MVA;
}
object load {
	name bus123;
	phases ABC;
	nominal_voltage 66.395 kV;
	bustype PQ;
	voltage_A 66.1419-11.3202d kV;
	voltage_B 66.1419-131.3202d kV;
	voltage_C 66.1419+108.6798d kV;
	constant_power_A 1.9433+0.5533j MVA;
	constant_power_B 1.9433+0.5533j MVA;
	constant_power_C 1.9433+0.5533j MVA;
}
object load {
	name bus124;
	phases ABC;
	nominal_voltage 66.395 kV;
	bustype PQ;
	voltage_A 67.5770-6.9466d kV;
	voltage_B 67.5770-126.9466d kV;
	voltage_C 67.5770+113.0534d kV;
	constant_power_A 0.1167+0.0333j MVA;
	constant_power_B 0.1167+0.0333j MVA;
	constant_power_C 0.1167+0.0333j MVA;
}
object load {
	name bus125;
	phases ABC;
	nominal_voltage 66.395 kV;
	bustype PQ;
	voltage_A 66.1937-11.5796d kV;
	voltage_B 66.1937-131.5796d kV;
	voltage_C 66.1937+108.4204d kV;
	constant_power_A 1.7933+0.5100j MVA;
	constant_power_B 1.7933+0.5100j MVA;
	constant_power_C 1.7933+0.5100j MVA;
}
object load {
	name bus126;
	phases ABC;
	nominal_voltage 66.395 kV;
	bustype PQ;
	voltage_A 66.2944-9.3201d kV;
	voltage_B 66.2944-129.3201d kV;
	voltage_C 66.2944+110.6799d kV;
	constant_power_A 1.5200+0.4333j MVA;
	constant_power_B 1.5200+0.4333j MVA;
	constant_power_C 1.5200+0.4333j MVA;
}
object load {
	name bus127;
	phases ABC;
	nominal_voltage 66.395 kV;
	bustype PQ;
	voltage_A 65.7541-11.5473d kV;
	voltage_B 65.7541-131.5473d kV;
	voltage_C 65.7541+108.4527d kV;
	constant_power_A 8.9267+2.5433j MVA;
	constant_power_B 8.9267+2.5433j MVA;
	constant_power_C 8.9267+2.5433j MVA;
}
object load {
	name bus128;
	phases ABC;
	nominal_voltage 66.395 kV;
	bustype PQ;
	voltage_A 66.9996-10.3216d kV;
	voltage_B 66.9996-130.3216d kV;
	voltage_C 66.9996+109.6784d kV;
	constant_power_A 0.5600+0.1600j MVA;
	constant_power_B 0.5600+0.1600j MVA;
	constant_power_C 0.5600+0.1600j MVA;
}
object load {
	name bus129;
	phases ABC;
	nominal_voltage 66.395 kV;
	bustype PQ;
	voltage_A 66.6857-9.8116d kV;
	voltage_B 66.6857-129.8116d kV;
	voltage_C 66.6857+110.1884d kV;
	constant_power_A 0.6200+0.1767j MVA;
	constant_power_B 0.6200+0.1767j MVA;
	constant_power_C 0.6200+0.1767j MVA;
}
object load {
	name bus130;
	phases ABC;
	nominal_voltage 66.395 kV;
	bustype PQ;
	voltage_A 66.4644-11.8123d kV;
	voltage_B 66.4644-131.8123d kV;
	voltage_C 66.4644+108.1877d kV;
	constant_power_A 2.3433+0.6667j MVA;
	constant_power_B 2.3433+0.6667j MVA;
	constant_power_C 2.3433+0.6667j MVA;
}
object load {
	name bus131;
	phases ABC;
	nominal_voltage 66.395 kV;
	bustype PQ;
	voltage_A 66.6012-11.9331d kV;
	voltage_B 66.6012-131.9331d kV;
	voltage_C 66.6012+108.0669d kV;
	constant_power_A 2.4233+0.6900j MVA;
	constant_power_B 2.4233+0.6900j MVA;
	constant_power_C 2.4233+0.6900j MVA;
}
object load {
	name bus132;
	phases ABC;
	nominal_voltage 66.395 kV;
	bustype PQ;
	voltage_A 67.5070-9.7198d kV;
	voltage_B 67.5070-129.7198d kV;
	voltage_C 67.5070+110.2802d kV;
	constant_power_A 2.6800+0.7633j MVA;
	constant_power_B 2.6800+0.7633j MVA;
	constant_power_C 2.6800+0.7633j MVA;
}
object load {
	name bus133;
	phases ABC;
	nominal_voltage 66.395 kV;
	bustype PQ;
	voltage_A 66.0458-12.7496d kV;
	voltage_B 66.0458-132.7496d kV;
	voltage_C 66.0458+107.2504d kV;
	constant_power_A 3.2833+0.9367j MVA;
	constant_power_B 3.2833+0.9367j MVA;
	constant_power_C 3.2833+0.9367j MVA;
}
object load {
	name bus134;
	phases ABC;
	nominal_voltage 66.395 kV;
	bustype PQ;
	voltage_A 66.9082-8.8815d kV;
	voltage_B 66.9082-128.8815d kV;
	voltage_C 66.9082+111.1185d kV;
	constant_power_A 8.1967+2.3367j MVA;
	constant_power_B 8.1967+2.3367j MVA;
	constant_power_C 8.1967+2.3367j MVA;
}
object load {
	name bus135;
	phases ABC;
	nominal_voltage 66.395 kV;
	bustype PQ;
	voltage_A 67.2564-11.5757d kV;
	voltage_B 67.2564-131.5757d kV;
	voltage_C 67.2564+108.4243d kV;
	constant_power_A 1.0700+0.3033j MVA;
	constant_power_B 1.0700+0.3033j MVA;
	constant_power_C 1.0700+0.3033j MVA;
}
object load {
	name bus136;
	phases ABC;
	nominal_voltage 66.395 kV;
	bustype PQ;
	voltage_A 68.1047-5.5591d kV;
	voltage_B 68.1047-125.5591d kV;
	voltage_C 68.1047+114.4409d kV;
	constant_power_A 2.8167+0.8033j MVA;
	constant_power_B 2.8167+0.8033j MVA;
	constant_power_C 2.8167+0.8033j MVA;
}
object load {
	name bus137;
	phases ABC;
	nominal_voltage 66.395 kV;
	bustype PQ;
	voltage_A 67.0290-9.8599d kV;
	voltage_B 67.0290-129.8599d kV;
	voltage_C 67.0290+110.1401d kV;
	constant_power_A 1.4433+0.4100j MVA;
	constant_power_B 1.4433+0.4100j MVA;
	constant_power_C 1.4433+0.4100j MVA;
}
object load {
	name bus138;
	phases ABC;
	nominal_voltage 66.395 kV;
	bustype PQ;
	voltage_A 66.9051-8.1683d kV;
	voltage_B 66.9051-128.1683d kV;
	voltage_C 66.9051+111.8317d kV;
	constant_power_A 0.7333+0.2100j MVA;
	constant_power_B 0.7333+0.2100j MVA;
	constant_power_C 0.7333+0.2100j MVA;
}
object load {
	name bus139;
	phases ABC;
	nominal_voltage 66.395 kV;
	bustype PQ;
	voltage_A 66.1202-11.9962d kV;
	voltage_B 66.1202-131.9962d kV;
	voltage_C 66.1202+108.0038d kV;
	constant_power_A 1.1633+0.3300j MVA;
	constant_power_B 1.1633+0.3300j MVA;
	constant_power_C 1.1633+0.3300j MVA;
}
object load {
	name bus140;
	phases ABC;
	nominal_voltage 66.395 kV;
	bustype PQ;
	voltage_A 66.7572-9.3767d kV;
	voltage_B 66.7572-129.3767d kV;
	voltage_C 66.7572+110.6233d kV;
	constant_power_A 0.5600+0.1600j MVA;
	constant_power_B 0.5600+0.1600j MVA;
	constant_power_C 0.5600+0.1600j MVA;
}
object load {
	name bus141;
	phases ABC;
	nominal_voltage 66.395 kV;
	bustype PQ;
	voltage_A 66.0128-11.0929d kV;
	voltage_B 66.0128-131.0929d kV;
	voltage_C 66.0128+108.9072d kV;
	constant_power_A 0.6033+0.1700j MVA;
	constant_power_B 0.6033+0.1700j MVA;
	constant_power_C 0.6033+0.1700j MVA;
}
object load {
	name bus142;
	phases ABC;
	nominal_voltage 66.395 kV;
	bustype PQ;
	voltage_A 66.0298-12.0338d kV;
	voltage_B 66.0298-132.0338d kV;
	voltage_C 66.0298+107.9662d kV;
	constant_power_A 0.5367+0.1533j MVA;
	constant_power_B 0.5367+0.1533j MVA;
	constant_power_C 0.5367+0.1533j MVA;
}
object load {
	name bus143;
	phases ABC;
	nominal_voltage 66.395 kV;
	bustype PQ;
	voltage_A 66.0026-15.3787d kV;
	voltage_B 66.0026-135.3787d kV;
	voltage_C 66.0026+104.6213d kV;
	constant_power_A 3.3067+0.9433j MVA;
	constant_power_B 3.3067+0.9433j MVA;
	constant_power_C 3.3067+0.9433j MVA;
}
object load {
	name bus144;
	phases ABC;
	nominal_voltage 66.395 kV;
	bustype PQ;
	voltage_A 65.8808-15.3843d kV;
	voltage_B 65.8808-135.3843d kV;
	voltage_C 65.8808+104.6157d kV;
	constant_power_A 7.1967+2.0500j MVA;
	constant_power_B 7.1967+2.0500j MVA;
	constant_power_C 7.1967+2.0500j MVA;
}
object load {
	name bus145;
	phases ABC;
	nominal_voltage 66.395 kV;
	bustype PQ;
	voltage_A 66.4702-10.2617d kV;
	voltage_B 66.4702-130.2617d kV;
	voltage_C 66.4702+109.7383d kV;
	constant_power_A 1.9700+0.5600j MVA;
	constant_power_B 1.9700+0.5600j MVA;
	constant_power_C 1.9700+0.5600j MVA;
}
object load {
	name bus146;
	phases ABC;
	nominal_voltage 66.395 kV;
	bustype PQ;
	voltage_A 65.9059-11.4973d kV;
	voltage_B 65.9059-131.4973d kV;
	voltage_C 65.9059+108.5027d kV;
	constant_power_A 0.6700+0.1900j MVA;
	constant_power_B 0.6700+0.1900j MVA;
	constant_power_C 0.6700+0.1900j MVA;
}
object load {
	name bus147;
	phases ABC;
	nominal_voltage 66.395 kV;
	bustype PQ;
	voltage_A 67.4605-7.3275d kV;
	voltage_B 67.4605-127.3275d kV;
	voltage_C 67.4605+112.6725d kV;
	constant_power_A 0.5333+0.1533j MVA;
	constant_power_B 0.5333+0.1533j MVA;
	constant_power_C 0.5333+0.1533j MVA;
}
object load {
	name bus148;
	phases ABC;
	nominal_voltage 66.395 kV;
	bustype PQ;
	voltage_A 67.0190-9.0247d kV;
	voltage_B 67.0190-129.0247d kV;
	voltage_C 67.0190+110.9753d kV;
	constant_power_A 0.7333+0.2100j MVA;
	constant_power_B 0.7333+0.2100j MVA;
	constant_power_C 0.7333+0.2100j MVA;
}
object load {
	name bus149;
	phases ABC;
	nominal_voltage 66.395 kV;
	bustype PQ;
	voltage_A 67.4392-7.0298d kV;
	voltage_B 67.4392-127.0298d kV;
	voltage_C 67.4392+112.9702d kV;
	constant_power_A 0.2700+0.0767j MVA;
	constant_power_B 0.2700+0.0767j MVA;
	constant_power_C 0.2700+0.0767j MVA;
}
object load {
	name bus150;
	phases ABC;
	nominal_voltage 66.395 kV;
	bustype PQ;
	voltage_A 67.4290-13.2039d kV;
	voltage_B 67.4290-133.2039d kV;
	voltage_C 67.4290+106.7961d kV;
	constant_power_A 0.6300+0.1800j MVA;
	constant_power_B 0.6300+0.1800j MVA;
	constant_power_C 0.6300+0.1800j MVA;
}
object load {
	name bus151;
	phases ABC;
	nominal_voltage 66.395 kV;
	bustype PQ;
	voltage_A 65.8301-12.5929d kV;
	voltage_B 65.8301-132.5929d kV;
	voltage_C 65.8301+107.4071d kV;
	constant_power_A 2.5333+0.7233j MVA;
	constant_power_B 2.5333+0.7233j MVA;
	constant_power_C 2.5333+0.7233j MVA;
}
object load {
	name bus152;
	phases ABC;
	nominal_voltage 66.395 kV;
	bustype PQ;
	voltage_A 66.1429-13.9524d kV;
	voltage_B 66.1429-133.9524d kV;
	voltage_C 66.1429+106.0476d kV;
	constant_power_A 2.6433+0.7533j MVA;
	constant_power_B 2.6433+0.7533j MVA;
	constant_power_C 2.6433+0.7533j MVA;
}
object load {
	name bus153;
	phases ABC;
	nominal_voltage 66.395 kV;
	bustype PQ;
	voltage_A 66.0207-12.9833d kV;
	voltage_B 66.0207-132.9833d kV;
	voltage_C 66.0207+107.0167d kV;
	constant_power_A 4.6300+1.3200j MVA;
	constant_power_B 4.6300+1.3200j MVA;
	constant_power_C 4.6300+1.3200j MVA;
}
object load {
	name bus154;
	phases ABC;
	nominal_voltage 66.395 kV;
	bustype PQ;
	voltage_A 65.3277-11.2401d kV;
	voltage_B 65.3277-131.2401d kV;
	voltage_C 65.3277+108.7599d kV;
	constant_power_A 14.7367+4.2000j MVA;
	constant_power_B 14.7367+4.2000j MVA;
	constant_power_C 14.7367+4.2000j MVA;
}
object load {
	name bus155;
	phases ABC;
	nominal_voltage 66.395 kV;
	bustype PQ;
	voltage_A 66.0329-10.6420d kV;
	voltage_B 66.0329-130.6420d kV;
	voltage_C 66.0329+109.3580d kV;
	constant_power_A 3.3967+0.9667j MVA;
	constant_power_B 3.3967+0.9667j MVA;
	constant_power_C 3.3967+0.9667j MVA;
}
object load {
	name bus156;
	phases ABC;
	nominal_voltage 66.395 kV;
	bustype PQ;
	voltage_A 65.9795-12.8194d kV;
	voltage_B 65.9795-132.8194d kV;
	voltage_C 65.9795+107.1806d kV;
	constant_power_A 2.6800+0.7633j MVA;
	constant_power_B 2.6800+0.7633j MVA;
	constant_power_C 2.6800+0.7633j MVA;
}
object load {
	name bus157;
	phases ABC;
	nominal_voltage 66.395 kV;
	bustype PQ;
	voltage_A 66.3420-11.0131d kV;
	voltage_B 66.3420-131.0131d kV;
	voltage_C 66.3420+108.9869d kV;
	constant_power_A 14.6167+4.1667j MVA;
	constant_power_B 14.6167+4.1667j MVA;
	constant_power_C 14.6167+4.1667j MVA;
}
object load {
	name bus158;
	phases ABC;
	nominal_voltage 66.395 kV;
	bustype PQ;
	voltage_A 66.4285-10.8250d kV;
	voltage_B 66.4285-130.8250d kV;
	voltage_C 66.4285+109.1750d kV;
	constant_power_A 7.0300+2.0033j MVA;
	constant_power_B 7.0300+2.0033j MVA;
	constant_power_C 7.0300+2.0033j MVA;
}
object load {
	name bus159;
	phases ABC;
	nominal_voltage 66.395 kV;
	bustype PQ;
	voltage_A 66.9770-8.1243d kV;
	voltage_B 66.9770-128.1243d kV;
	voltage_C 66.9770+111.8757d kV;
	constant_power_A 0.5500+0.1567j MVA;
	constant_power_B 0.5500+0.1567j MVA;
	constant_power_C 0.5500+0.1567j MVA;
}
object load {
	name bus160;
	phases ABC;
	nominal_voltage 66.395 kV;
	bustype PQ;
	voltage_A 67.4210-7.6683d kV;
	voltage_B 67.4210-127.6683d kV;
	voltage_C 67.4210+112.3317d kV;
	constant_power_A 0.3000+0.0867j MVA;
	constant_power_B 0.3000+0.0867j MVA;
	constant_power_C 0.3000+0.0867j MVA;
}
object load {
	name bus161;
	phases ABC;
	nominal_voltage 66.395 kV;
	bustype PQ;
	voltage_A 66.8309-9.1997d kV;
	voltage_B 66.8309-129.1997d kV;
	voltage_C 66.8309+110.8003d kV;
	constant_power_A 0.1800+0.0500j MVA;
	constant_power_B 0.1800+0.0500j MVA;
	constant_power_C 0.1800+0.0500j MVA;
}
object load {
	name bus162;
	phases ABC;
	nominal_voltage 66.395 kV;
	bustype PQ;
	voltage_A 67.2768-12.0381d kV;
	voltage_B 67.2768-132.0381d kV;
	voltage_C 67.2768+107.9619d kV;
	constant_power_A 0.7433+0.2100j MVA;
	constant_power_B 0.7433+0.2100j MVA;
	constant_power_C 0.7433+0.2100j MVA;
}
object load {
	name bus163;
	phases ABC;
	nominal_voltage 66.395 kV;
	bustype PQ;
	voltage_A 66.3518-14.8609d kV;
	voltage_B 66.3518-134.8610d kV;
	voltage_C 66.3518+105.1390d kV;
	constant_power_A 1.8467+0.5267j MVA;
	constant_power_B 1.8467+0.5267j MVA;
	constant_power_C 1.8467+0.5267j MVA;
}
object load {
	name bus164;
	phases ABC;
	nominal_voltage 66.395 kV;
	bustype PQ;
	voltage_A 66.4458-11.0178d kV;
	voltage_B 66.4458-131.0178d kV;
	voltage_C 66.4458+108.9822d kV;
	constant_power_A 2.3867+0.6800j MVA;
	constant_power_B 2.3867+0.6800j MVA;
	constant_power_C 2.3867+0.6800j MVA;
}
object load {
	name bus165;
	phases ABC;
	nominal_voltage 66.395 kV;
	bustype PQ;
	voltage_A 66.6347-16.2484d kV;
	voltage_B 66.6347-136.2484d kV;
	voltage_C 66.6347+103.7516d kV;
	constant_power_A 12.0933+3.4467j MVA;
	constant_power_B 12.0933+3.4467j MVA;
	constant_power_C 12.0933+3.4467j MVA;
	constant_impedance_A 0.0000-330.6250j Ohm;
	constant_impedance_B 0.0000-330.6250j Ohm;
	constant_impedance_C 0.0000-330.6250j Ohm;
}
object load {
	name bus166;
	phases ABC;
	nominal_voltage 66.395 kV;
	bustype PQ;
	voltage_A 65.9212-12.3328d kV;
	voltage_B 65.9212-132.3328d kV;
	voltage_C 65.9212+107.6672d kV;
	constant_power_A 0.0800+0.0233j MVA;
	constant_power_B 0.0800+0.0233j MVA;
	constant_power_C 0.0800+0.0233j MVA;
}
object load {
	name bus167;
	phases ABC;
	nominal_voltage 66.395 kV;
	bustype PQ;
	voltage_A 65.9948-11.9178d kV;
	voltage_B 65.9948-131.9179d kV;
	voltage_C 65.9948+108.0821d kV;
	constant_power_A 0.8067+0.2300j MVA;
	constant_power_B 0.8067+0.2300j MVA;
	constant_power_C 0.8067+0.2300j MVA;
}
object load {
	name bus168;
	phases ABC;
	nominal_voltage 66.395 kV;
	bustype PQ;
	voltage_A 67.2801-7.8397d kV;
	voltage_B 67.2801-127.8397d kV;
	voltage_C 67.2801+112.1603d kV;
	constant_power_A 0.6067+0.1733j MVA;
	constant_power_B 0.6067+0.1733j MVA;
	constant_power_C 0.6067+0.1733j MVA;
}
object load {
	name bus169;
	phases ABC;
	nominal_voltage 66.395 kV;
	bustype PQ;
	voltage_A 66.4832-10.0884d kV;
	voltage_B 66.4832-130.0884d kV;
	voltage_C 66.4832+109.9116d kV;
	constant_power_A 0.4867+0.1400j MVA;
	constant_power_B 0.4867+0.1400j MVA;
	constant_power_C 0.4867+0.1400j MVA;
}
object load {
	name bus170;
	phases ABC;
	nominal_voltage 66.395 kV;
	bustype PQ;
	voltage_A 66.0708-11.7292d kV;
	voltage_B 66.0708-131.7292d kV;
	voltage_C 66.0708+108.2708d kV;
	constant_power_A 1.1467+0.3267j MVA;
	constant_power_B 1.1467+0.3267j MVA;
	constant_power_C 1.1467+0.3267j MVA;
}
object load {
	name bus171;
	phases ABC;
	nominal_voltage 66.395 kV;
	bustype PQ;
	voltage_A 67.2757-13.2733d kV;
	voltage_B 67.2757-133.2733d kV;
	voltage_C 67.2757+106.7267d kV;
	constant_power_A 0.8567+0.2433j MVA;
	constant_power_B 0.8567+0.2433j MVA;
	constant_power_C 0.8567+0.2433j MVA;
}
object load {
	name bus172;
	phases ABC;
	nominal_voltage 66.395 kV;
	bustype PQ;
	voltage_A 67.0562-8.3212d kV;
	voltage_B 67.0562-128.3212d kV;
	voltage_C 67.0562+111.6788d kV;
	constant_power_A 0.2067+0.0600j MVA;
	constant_power_B 0.2067+0.0600j MVA;
	constant_power_C 0.2067+0.0600j MVA;
}
object load {
	name bus173;
	phases ABC;
	nominal_voltage 66.395 kV;
	bustype PQ;
	voltage_A 66.4294-10.1791d kV;
	voltage_B 66.4294-130.1791d kV;
	voltage_C 66.4294+109.8209d kV;
	constant_power_A 12.7000+3.6200j MVA;
	constant_power_B 12.7000+3.6200j MVA;
	constant_power_C 12.7000+3.6200j MVA;
}
object load {
	name bus174;
	phases ABC;
	nominal_voltage 66.395 kV;
	bustype PQ;
	voltage_A 66.2683-11.6276d kV;
	voltage_B 66.2683-131.6276d kV;
	voltage_C 66.2683+108.3724d kV;
	constant_power_A 1.4533+0.4133j MVA;
	constant_power_B 1.4533+0.4133j MVA;
	constant_power_C 1.4533+0.4133j MVA;
}
object load {
	name bus175;
	phases ABC;
	nominal_voltage 66.395 kV;
	bustype PQ;
	voltage_A 65.9347-10.0311d kV;
	voltage_B 65.9347-130.0311d kV;
	voltage_C 65.9347+109.9689d kV;
	constant_power_A 0.8033+0.2300j MVA;
	constant_power_B 0.8033+0.2300j MVA;
	constant_power_C 0.8033+0.2300j MVA;
}
object load {
	name bus176;
	phases ABC;
	nominal_voltage 66.395 kV;
	bustype PQ;
	voltage_A 65.9895-11.4326d kV;
	voltage_B 65.9895-131.4326d kV;
	voltage_C 65.9895+108.5674d kV;
	constant_power_A 0.7200+0.2033j MVA;
	constant_power_B 0.7200+0.2033j MVA;
	constant_power_C 0.7200+0.2033j MVA;
}
object load {
	name bus177;
	phases ABC;
	nominal_voltage 66.395 kV;
	bustype PQ;
	voltage_A 66.1285-12.2506d kV;
	voltage_B 66.1285-132.2506d kV;
	voltage_C 66.1285+107.7494d kV;
	constant_power_A 0.6167+0.1767j MVA;
	constant_power_B 0.6167+0.1767j MVA;
	constant_power_C 0.6167+0.1767j MVA;
}
object load {
	name bus178;
	phases ABC;
	nominal_voltage 66.395 kV;
	bustype PQ;
	voltage_A 65.9303-13.6349d kV;
	voltage_B 65.9303-133.6349d kV;
	voltage_C 65.9303+106.3651d kV;
	constant_power_A 1.3700+0.3900j MVA;
	constant_power_B 1.3700+0.3900j MVA;
	constant_power_C 1.3700+0.3900j MVA;
}
object load {
	name bus179;
	phases ABC;
	nominal_voltage 66.395 kV;
	bustype PQ;
	voltage_A 65.9866-12.9597d kV;
	voltage_B 65.9866-132.9597d kV;
	voltage_C 65.9866+107.0403d kV;
	constant_power_A 2.9733+0.8467j MVA;
	constant_power_B 2.9733+0.8467j MVA;
	constant_power_C 2.9733+0.8467j MVA;
}
object load {
	name bus180;
	phases ABC;
	nominal_voltage 66.395 kV;
	bustype PQ;
	voltage_A 66.2262-10.6980d kV;
	voltage_B 66.2262-130.6980d kV;
	voltage_C 66.2262+109.3020d kV;
	constant_power_A 0.3200+0.0900j MVA;
	constant_power_B 0.3200+0.0900j MVA;
	constant_power_C 0.3200+0.0900j MVA;
}
object load {
	name bus181;
	phases ABC;
	nominal_voltage 66.395 kV;
	bustype PQ;
	voltage_A 65.7898-10.9089d kV;
	voltage_B 65.7898-130.9089d kV;
	voltage_C 65.7898+109.0911d kV;
	constant_power_A 0.3167+0.0900j MVA;
	constant_power_B 0.3167+0.0900j MVA;
	constant_power_C 0.3167+0.0900j MVA;
}
object load {
	name bus182;
	phases ABC;
	nominal_voltage 66.395 kV;
	bustype PQ;
	voltage_A 65.8303-13.0899d kV;
	voltage_B 65.8303-133.0899d kV;
	voltage_C 65.8303+106.9102d kV;
	constant_power_A 4.3967+1.2533j MVA;
	constant_power_B 4.3967+1.2533j MVA;
	constant_power_C 4.3967+1.2533j MVA;
}
object load {
	name bus183;
	phases ABC;
	nominal_voltage 66.395 kV;
	bustype PQ;
	voltage_A 66.7489-10.4862d kV;
	voltage_B 66.7489-130.4862d kV;
	voltage_C 66.7489+109.5138d kV;
	constant_power_A 2.7233+0.7767j MVA;
	constant_power_B 2.7233+0.7767j MVA;
	constant_power_C 2.7233+0.7767j MVA;
}
object load {
	name bus184;
	phases ABC;
	nominal_voltage 66.395 kV;
	bustype PQ;
	voltage_A 67.1326-11.4446d kV;
	voltage_B 67.1326-131.4446d kV;
	voltage_C 67.1326+108.5554d kV;
	constant_power_A 1.7433+0.4967j MVA;
	constant_power_B 1.7433+0.4967j MVA;
	constant_power_C 1.7433+0.4967j MVA;
}
object load {
	name bus185;
	phases ABC;
	nominal_voltage 66.395 kV;
	bustype PQ;
	voltage_A 66.0386-12.8041d kV;
	voltage_B 66.0386-132.8041d kV;
	voltage_C 66.0386+107.1959d kV;
	constant_power_A 0.5000+0.1433j MVA;
	constant_power_B 0.5000+0.1433j MVA;
	constant_power_C 0.5000+0.1433j MVA;
}
object load {
	name bus186;
	phases ABC;
	nominal_voltage 66.395 kV;
	bustype PQ;
	voltage_A 66.0445-12.7952d kV;
	voltage_B 66.0445-132.7952d kV;
	voltage_C 66.0445+107.2048d kV;
	constant_power_A 1.1200+0.3200j MVA;
	constant_power_B 1.1200+0.3200j MVA;
	constant_power_C 1.1200+0.3200j MVA;
}
object load {
	name bus187;
	phases ABC;
	nominal_voltage 66.395 kV;
	bustype PQ;
	voltage_A 66.4989-13.3178d kV;
	voltage_B 66.4989-133.3178d kV;
	voltage_C 66.4989+106.6822d kV;
	constant_power_A 0.8533+0.2433j MVA;
	constant_power_B 0.8533+0.2433j MVA;
	constant_power_C 0.8533+0.2433j MVA;
}
object load {
	name bus188;
	phases ABC;
	nominal_voltage 66.395 kV;
	bustype PQ;
	voltage_A 66.5988-13.3725d kV;
	voltage_B 66.5988-133.3725d kV;
	voltage_C 66.5988+106.6275d kV;
	constant_power_A 1.4833+0.4233j MVA;
	constant_power_B 1.4833+0.4233j MVA;
	constant_power_C 1.4833+0.4233j MVA;
}
object load {
	name bus189;
	phases ABC;
	nominal_voltage 66.395 kV;
	bustype PQ;
	voltage_A 67.2899-13.9196d kV;
	voltage_B 67.2899-133.9196d kV;
	voltage_C 67.2899+106.0804d kV;
	constant_power_A 8.6667+2.4700j MVA;
	constant_power_B 8.6667+2.4700j MVA;
	constant_power_C 8.6667+2.4700j MVA;
}
object load {
	name bus190;
	phases ABC;
	nominal_voltage 66.395 kV;
	bustype PQ;
	voltage_A 67.4609-13.2063d kV;
	voltage_B 67.4609-133.2063d kV;
	voltage_C 67.4609+106.7937d kV;
	constant_power_A 6.4667+1.8433j MVA;
	constant_power_B 6.4667+1.8433j MVA;
	constant_power_C 6.4667+1.8433j MVA;
}
object load {
	name bus191;
	phases ABC;
	nominal_voltage 66.395 kV;
	bustype PQ;
	voltage_A 67.7536-12.7788d kV;
	voltage_B 67.7536-132.7788d kV;
	voltage_C 67.7536+107.2212d kV;
	constant_power_A 0.5333+0.1500j MVA;
	constant_power_B 0.5333+0.1500j MVA;
	constant_power_C 0.5333+0.1500j MVA;
}
object load {
	name bus192;
	phases ABC;
	nominal_voltage 66.395 kV;
	bustype PQ;
	voltage_A 68.0577-12.8426d kV;
	voltage_B 68.0577-132.8426d kV;
	voltage_C 68.0577+107.1574d kV;
	constant_power_A 0.3167+0.0900j MVA;
	constant_power_B 0.3167+0.0900j MVA;
	constant_power_C 0.3167+0.0900j MVA;
}
object load {
	name bus193;
	phases ABC;
	nominal_voltage 66.395 kV;
	bustype PQ;
	voltage_A 68.5170-11.5745d kV;
	voltage_B 68.5170-131.5745d kV;
	voltage_C 68.5170+108.4255d kV;
	constant_power_A 1.3333+0.3800j MVA;
	constant_power_B 1.3333+0.3800j MVA;
	constant_power_C 1.3333+0.3800j MVA;
}
object load {
	name bus194;
	phases ABC;
	nominal_voltage 66.395 kV;
	bustype PQ;
	voltage_A 67.0032-14.4642d kV;
	voltage_B 67.0032-134.4642d kV;
	voltage_C 67.0032+105.5358d kV;
	constant_power_A 4.1767+1.1900j MVA;
	constant_power_B 4.1767+1.1900j MVA;
	constant_power_C 4.1767+1.1900j MVA;
}
object load {
	name bus195;
	phases ABC;
	nominal_voltage 66.395 kV;
	bustype PQ;
	voltage_A 67.8348-13.7582d kV;
	voltage_B 67.8348-133.7583d kV;
	voltage_C 67.8348+106.2418d kV;
	constant_power_A 6.7633+1.9267j MVA;
	constant_power_B 6.7633+1.9267j MVA;
	constant_power_C 6.7633+1.9267j MVA;
	constant_impedance_A 0.0000-440.8333j Ohm;
	constant_impedance_B 0.0000-440.8333j Ohm;
	constant_impedance_C 0.0000-440.8333j Ohm;
}
object load {
	name bus196;
	phases ABC;
	nominal_voltage 66.395 kV;
	bustype PQ;
	voltage_A 67.4127-13.8086d kV;
	voltage_B 67.4127-133.8086d kV;
	voltage_C 67.4127+106.1914d kV;
	constant_power_A 2.1967+0.6267j MVA;
	constant_power_B 2.1967+0.6267j MVA;
	constant_power_C 2.1967+0.6267j MVA;
}
object load {
	name bus197;
	phases ABC;
	nominal_voltage 66.395 kV;
	bustype PQ;
	voltage_A 67.2610-13.8574d kV;
	voltage_B 67.2610-133.8574d kV;
	voltage_C 67.2610+106.1426d kV;
	constant_power_A 32.0000+9.1200j MVA;
	constant_power_B 32.0000+9.1200j MVA;
	constant_power_C 32.0000+9.1200j MVA;
}
object load {
	name bus198;
	phases ABC;
	nominal_voltage 66.395 kV;
	bustype PQ;
	voltage_A 67.2443-13.9563d kV;
	voltage_B 67.2443-133.9563d kV;
	voltage_C 67.2443+106.0437d kV;
	constant_power_A 19.3567+5.5167j MVA;
	constant_power_B 19.3567+5.5167j MVA;
...